FoamFile
{
    version     2.0;
    format      ascii;
    class       dictionary;
    object      fvSchemes;
}
// pimpleFoam — V1 (2-D channel, no-slip) and V3 (2-D array, symmetry)

ddtSchemes
{
    default         backward;           // 2nd-order implicit
}

gradSchemes
{
    default         Gauss linear;
    grad(U)         Gauss linear;
}

divSchemes
{
    default         none;
    div(phi,U)      Gauss linearUpwind grad(U);  // 2nd-order upwind
}

laplacianSchemes
{
    default         Gauss linear corrected;
}

interpolationSchemes
{
    default         linear;
}

snGradSchemes
{
    default         corrected;
}

wallDist
{
    method          meshWave;
}
