FoamFile
{
    version     2.0;
    format      ascii;
    class       dictionary;
    object      decomposeParDict;
}

numberOfSubdomains 15;
method          scotch;
