FoamFile
{
    version     2.0;
    format      ascii;
    class       dictionary;
    object      controlDict;
}

application     pimpleFoam;
startFrom       startTime;
startTime       0;
stopAt          endTime;
endTime         3.000;
deltaT          1e-3;
adjustTimeStep  yes;
maxCo           0.9;
writeControl    runTime;
writeInterval   0.2;
purgeWrite      0;
writeFormat     ascii;
writePrecision  10;
writeCompression off;
timeFormat      general;
timePrecision   12;
runTimeModifiable true;

functions
{
    forceCoeffs
    {
        type forceCoeffs;
        libs (forces);
        executeControl timeStep;
        executeInterval 1;
        writeControl timeStep;
        writeInterval 1;
        log yes;
        patches (cylinder);
        rho rhoInf;
        rhoInf 1.205000;
        CofR (0 0 0);
        liftDir (0 1 0);
        dragDir (1 0 0);
        pitchAxis (0 0 1);
        magUInf 0.202133333;
        lRef 0.012000;
        Aref 0.000120000;
    }
    residuals
    {
        type solverInfo;
        libs (utilityFunctionObjects);
        fields (U p);
        writeControl timeStep;
        writeInterval 1;
    }
    CourantNo
    {
        type CourantNo;
        libs (fieldFunctionObjects);
        writeControl writeTime;
    }
}
