FoamFile
{
    version     2.0;
    format      ascii;
    class       dictionary;
    object      controlDict;
}

application     pimpleFoam;

startFrom       latestTime;
startTime       0;

stopAt          endTime;
endTime         12;

deltaT          0.001;
adjustTimeStep  yes;
maxCo           0.8;

writeControl    runTime;
writeInterval   0.1;

purgeWrite      0;
writeFormat     ascii;
writePrecision  8;
writeCompression off;

timeFormat      general;
timePrecision   8;

runTimeModifiable true;

functions
{
    forceCoeffs
    {
        type            forceCoeffs;
        libs            (forces);
        executeControl  timeStep;
        executeInterval 1;
        writeControl    timeStep;
        writeInterval   1;
        log             yes;
        patches         (cylinder);
        rho             rhoInf;
        rhoInf          1.225;
        CofR            (0 0 0);
        liftDir         (0 1 0);
        dragDir         (1 0 0);
        pitchAxis       (0 0 1);
        magUInf         0.125;
        lRef            0.012;
        Aref            0.00012;
    }

    residuals
    {
        type            solverInfo;
        libs            (utilityFunctionObjects);
        fields          (U p);
        executeControl  timeStep;
        executeInterval 1;
        writeControl    timeStep;
        writeInterval   1;
    }
}
